11

C         -2.48281        0.02454       -0.02560
C         -1.55154        1.22994        0.11771
O         -0.20761        0.78077        0.25675
N         -3.88810        0.42018       -0.10463
H         -2.33806       -0.65906        0.81900
H         -2.21060       -0.53827       -0.92575
H         -1.80884        1.81781        1.00509
H         -1.61451        1.87501       -0.76505
H          0.35092        1.57636        0.28940
H         -4.17173        0.83674        0.78168
H         -4.45910       -0.41772       -0.21426
